6
	Energy:    1602.3418219
Fe        -4.62550        0.98470       -0.28412
Fe        -4.50522       -1.64984        0.13260
Fe        -1.84703       -1.49702        0.33154
Fe        -1.96730        1.13752       -0.08519
Fe        -3.39193        0.03087        1.88323
Fe        -3.08060       -0.54319       -1.83582
